* Standard output driver
.SUBCKT  CD40_OUT_1X  in out  VDD VGND  vdd3={vdd2} speed3={speed2}  tripdt3={tripdt2}
.param trise1=80e-9*5.0/{vdd3}*{speed3}
.param Rout=500*5.0/{vdd3}*{speed3}
*
AE1  in 0 0 0 0  0 out10 0  BUF  tripdt={tripdt3}  trise={trise1}
*
*E1 out20 VGND out10 0 {vdd3}
B1 out20 VGND V=V(out10)*V(VDD,VGND)
Rout out20 out {Rout}
*D1 0   out  DIO2 
*D2 out VDD  DIO2
.ends
*