Version 4
SHEET 1 4228 2080
WIRE 1520 -256 1424 -256
WIRE 1632 -256 1520 -256
WIRE 752 -240 592 -240
WIRE 896 -240 752 -240
WIRE 1056 -240 896 -240
WIRE 1520 -240 1520 -256
WIRE -48 -224 -48 -272
WIRE -48 -224 -256 -224
WIRE 160 -224 -48 -224
WIRE 1424 -224 1424 -256
WIRE 592 -208 592 -240
WIRE 752 -208 752 -240
WIRE -256 -192 -256 -224
WIRE 160 -192 160 -224
WIRE 896 -176 896 -240
WIRE 1632 -176 1632 -256
WIRE 1424 -128 1424 -160
WIRE 1520 -128 1424 -128
WIRE 1568 -128 1520 -128
WIRE 592 -112 592 -144
WIRE 752 -112 752 -144
WIRE -848 -96 -848 -128
WIRE -256 -96 -256 -112
WIRE 160 -96 160 -112
WIRE 1056 -96 1056 -240
WIRE 1424 -96 1424 -128
WIRE 2032 -96 2032 -112
WIRE 2160 -96 2160 -128
WIRE 1520 -80 1520 -128
WIRE 896 -32 896 -96
WIRE 592 -16 592 -32
WIRE 752 -16 752 -32
WIRE -848 16 -848 -16
WIRE 1424 16 1424 -16
WIRE 1424 16 1392 16
WIRE 1520 16 1520 -16
WIRE 1520 16 1424 16
WIRE 1728 16 1696 16
WIRE 1984 16 1952 16
WIRE 2160 16 2160 -32
WIRE 2160 16 1984 16
WIRE 2192 16 2160 16
WIRE 2288 16 2288 -16
WIRE 1632 48 1536 48
WIRE 1664 48 1632 48
WIRE -144 64 -144 48
WIRE 48 64 48 48
WIRE 1536 64 1536 48
WIRE 1632 64 1632 48
WIRE 1664 80 1664 48
WIRE 1696 80 1664 80
WIRE 1728 80 1696 80
WIRE 1984 80 1952 80
WIRE 2160 80 1984 80
WIRE 592 96 592 64
WIRE 752 96 752 64
WIRE 752 96 592 96
WIRE 896 96 896 32
WIRE 896 96 752 96
WIRE 1056 96 1056 -16
WIRE 1056 96 896 96
WIRE -368 112 -432 112
WIRE 336 112 272 112
WIRE 752 144 592 144
WIRE 896 144 752 144
WIRE 1024 144 896 144
WIRE 1136 144 1024 144
WIRE 1536 144 1456 144
WIRE 1632 144 1632 128
WIRE 1632 144 1536 144
WIRE 1696 144 1632 144
WIRE 1728 144 1696 144
WIRE 1984 144 1952 144
WIRE 2176 144 1984 144
WIRE 2288 144 2288 96
WIRE 2288 144 2176 144
WIRE 2352 144 2288 144
WIRE 2464 144 2432 144
WIRE -784 176 -848 176
WIRE 592 176 592 144
WIRE 752 176 752 144
WIRE 2176 176 2176 144
WIRE 2288 176 2288 144
WIRE -432 208 -432 112
WIRE -384 208 -432 208
WIRE 336 208 336 112
WIRE 336 208 288 208
WIRE 896 208 896 144
WIRE 1696 208 1664 208
WIRE 1728 208 1696 208
WIRE 1984 208 1952 208
WIRE 2016 208 1984 208
WIRE -848 224 -848 176
WIRE 1024 224 1024 144
WIRE -112 240 -112 224
WIRE 16 240 16 224
WIRE -256 256 -256 -16
WIRE -224 256 -256 256
WIRE 160 256 160 -16
WIRE 160 256 128 256
WIRE -432 272 -432 208
WIRE -144 272 -144 144
WIRE -144 272 -160 272
WIRE 48 272 48 144
WIRE 64 272 48 272
WIRE 336 272 336 208
WIRE 592 272 592 240
WIRE 752 272 752 240
WIRE 1136 272 1136 144
WIRE 2176 272 2176 256
WIRE 2288 272 2288 240
WIRE -224 288 -256 288
WIRE 160 288 128 288
WIRE 1664 320 1664 208
WIRE 1744 320 1664 320
WIRE 1872 320 1824 320
WIRE 2016 320 2016 208
WIRE 2016 320 1952 320
WIRE 2096 320 2016 320
WIRE -848 336 -848 304
WIRE -112 336 -112 320
WIRE 16 336 16 320
WIRE 896 352 896 288
WIRE 1024 352 1024 288
WIRE 1664 352 1664 320
WIRE 2016 352 2016 320
WIRE 2176 368 2176 336
WIRE -432 384 -432 336
WIRE -256 384 -256 288
WIRE -256 384 -432 384
WIRE -48 384 -256 384
WIRE 160 384 160 288
WIRE 160 384 -48 384
WIRE 336 384 336 336
WIRE 336 384 160 384
WIRE 592 384 592 352
WIRE 752 384 752 352
WIRE -48 416 -48 384
WIRE 2096 416 2096 320
WIRE 2112 416 2096 416
WIRE 1664 480 1664 416
WIRE 2016 480 2016 416
WIRE 2176 480 2176 464
WIRE 2288 480 2176 480
WIRE 592 496 592 464
WIRE 752 496 752 464
WIRE 752 496 592 496
WIRE 896 496 896 416
WIRE 896 496 752 496
WIRE 1024 496 1024 432
WIRE 1024 496 896 496
WIRE 1136 496 1136 352
WIRE 1136 496 1024 496
WIRE -48 512 -48 496
WIRE 1024 512 1024 496
WIRE -128 800 -128 768
WIRE -128 800 -320 800
WIRE 1024 800 1024 768
WIRE 1024 800 832 800
WIRE -832 816 -832 768
WIRE 2416 816 2416 784
WIRE 2416 816 2096 816
WIRE 1024 848 1024 800
WIRE 2416 848 2416 816
WIRE -128 864 -128 800
WIRE 144 864 112 864
WIRE 352 864 336 864
WIRE 832 864 832 800
WIRE 1728 864 1648 864
WIRE 1968 864 1920 864
WIRE 2096 864 2096 816
WIRE 2096 864 2048 864
WIRE -320 880 -320 800
WIRE 144 896 112 896
WIRE 960 896 928 896
WIRE -192 912 -224 912
WIRE 352 928 336 928
WIRE -832 944 -832 896
WIRE 1520 960 1472 960
WIRE 1648 960 1600 960
WIRE 1728 960 1648 960
WIRE 2096 960 2096 944
WIRE 2096 960 1920 960
WIRE 2176 960 2096 960
WIRE 2288 960 2256 960
WIRE 2416 960 2416 928
WIRE 2416 960 2352 960
WIRE 832 992 832 944
WIRE 928 992 928 896
WIRE 928 992 832 992
WIRE 1024 992 1024 944
WIRE 1120 992 1024 992
WIRE 1648 992 1648 960
WIRE -320 1008 -320 960
WIRE -224 1008 -224 912
WIRE -224 1008 -320 1008
WIRE -128 1008 -128 960
WIRE -32 1008 -128 1008
WIRE 2416 1008 2416 960
WIRE 2416 1008 2368 1008
WIRE 2416 1024 2416 1008
WIRE 240 1040 240 1008
WIRE 832 1040 832 992
WIRE 1024 1040 1024 992
WIRE 2096 1040 2096 960
WIRE -320 1056 -320 1008
WIRE -128 1056 -128 1008
WIRE 512 1072 480 1072
WIRE -640 1088 -688 1088
WIRE 672 1088 640 1088
WIRE 768 1088 752 1088
WIRE 928 1088 928 992
WIRE 960 1088 928 1088
WIRE 2368 1088 2368 1008
WIRE 2368 1088 2144 1088
WIRE -480 1104 -512 1104
WIRE -384 1104 -400 1104
WIRE -224 1104 -224 1008
WIRE -192 1104 -224 1104
WIRE 512 1104 480 1104
WIRE 1648 1104 1648 1072
WIRE -640 1120 -688 1120
WIRE 2416 1120 2416 1104
WIRE -320 1216 -320 1152
WIRE -128 1216 -128 1152
WIRE -128 1216 -320 1216
WIRE 832 1216 832 1136
WIRE 1024 1216 1024 1136
WIRE 1024 1216 832 1216
WIRE 2000 1216 2000 1120
WIRE 2096 1216 2096 1136
WIRE 2416 1216 2416 1200
WIRE 2416 1216 2096 1216
FLAG -848 16 0
FLAG -848 -128 Vd
FLAG -128 1216 0
FLAG 1024 1216 0
FLAG -32 1008 VgA
FLAG 1120 992 VgB
FLAG -128 768 Vgg
FLAG 1024 768 Vgg
FLAG -144 48 VgA
FLAG 48 48 VgB
FLAG -48 -272 Vd
FLAG -48 512 0
FLAG 1056 96 0
FLAG 1024 512 0
FLAG -832 944 0
FLAG -752 768 Vcontrol
FLAG -848 336 0
FLAG -784 176 Vgg
FLAG 1136 144 Vo3
FLAG -48 384 Vsense
FLAG 1056 -240 Vo2
FLAG -720 256 Vo3
FLAG 1696 80 Err
FLAG 1696 144 Vfb
FLAG 1696 208 Vref
FLAG 1984 16 Vcc
FLAG 1984 80 Out
FLAG 1984 144 Ifb
FLAG 1984 208 Osc
FLAG 1664 480 0
FLAG 2016 480 0
FLAG 2288 272 0
FLAG 1696 16 0
FLAG 2160 80 Vcontrol
FLAG 2464 144 Vsense
FLAG 2160 -128 0
FLAG 2192 16 Vgg
FLAG 1456 144 Vo_comp
FLAG 2288 480 Vref
FLAG 2288 -16 Vref
FLAG 2416 784 Vo2
FLAG 2416 1216 0
FLAG 1648 1104 0
FLAG 1472 960 Vo_comp
FLAG 1648 864 Vref
FLAG 2032 -112 Vd
FLAG 2000 1216 0
FLAG -112 336 0
FLAG 16 336 0
FLAG 1520 -240 0
FLAG 1392 16 Vref
FLAG 112 896 Vcontrol
FLAG 352 864 Q
FLAG 352 928 _Q
FLAG 240 1040 0
FLAG 240 784 0
FLAG 112 864 _Q
FLAG -688 1088 Q
FLAG -688 1120 Vcontrol
FLAG 480 1072 _Q
FLAG 480 1104 Vcontrol
FLAG 560 944 0
FLAG 560 864 VDD
FLAG 1392 1200 0
FLAG 1392 1120 Vfeed
FLAG 2720 752 Vfeed
DATAFLAG 944 -240 "round($*100)/100"
DATAFLAG 944 144 "round($*100)/100"
SYMBOL voltage -848 -112 R0
WINDOW 123 0 0 Left 0
WINDOW 39 0 0 Left 0
SYMATTR InstName V1
SYMATTR Value 30
SYMBOL npn -192 864 R0
SYMATTR InstName Q1A
SYMATTR Value 2N2222
SYMBOL npn 960 848 R0
SYMATTR InstName Q1B
SYMATTR Value 2N2222
SYMBOL pnp -192 1152 M180
SYMATTR InstName Q2A
SYMATTR Value 2N2905A
SYMBOL pnp 960 1136 M180
SYMATTR InstName Q2B
SYMATTR Value 2N2905A
SYMBOL res -336 864 R0
SYMATTR InstName RcA
SYMATTR Value 560
SYMBOL npn -384 1056 R0
SYMATTR InstName QcA
SYMATTR Value 2N2222
SYMBOL res -384 1088 R90
WINDOW 0 0 56 VBottom 2
WINDOW 3 32 56 VTop 2
SYMATTR InstName RbA
SYMATTR Value 1k
SYMBOL res 816 848 R0
SYMATTR InstName RcB
SYMATTR Value 560
SYMBOL npn 768 1040 R0
SYMATTR InstName QcB
SYMATTR Value 2N2222
SYMBOL res 768 1072 R90
WINDOW 0 0 56 VBottom 2
WINDOW 3 32 56 VTop 2
SYMATTR InstName RbB
SYMATTR Value 1k
SYMBOL res -160 160 M180
WINDOW 0 36 76 Left 2
WINDOW 3 36 40 Left 2
SYMATTR InstName RgA
SYMATTR Value 33
SYMBOL ind2 -272 -96 M180
WINDOW 0 36 80 Left 2
WINDOW 3 36 40 Left 2
SYMATTR InstName L1A
SYMATTR Value 476µ
SYMATTR Type ind
SYMBOL res -272 -112 R0
SYMATTR InstName rL1A
SYMATTR Value 0.1
SYMBOL res 64 160 R180
WINDOW 0 36 76 Left 2
WINDOW 3 36 40 Left 2
SYMATTR InstName RgB
SYMATTR Value 33
SYMBOL ind2 176 -96 R180
WINDOW 0 36 80 Left 2
WINDOW 3 36 40 Left 2
SYMATTR InstName L1B
SYMATTR Value 476µ
SYMATTR Type ind
SYMBOL res 176 -112 M0
SYMATTR InstName rL1B
SYMATTR Value 0.1
SYMBOL AutoGenerated\\irf540 -192 272 M0
SYMATTR InstName UA
SYMBOL AutoGenerated\\irf540 96 272 R0
SYMATTR InstName UB
SYMBOL cap 880 -32 R0
WINDOW 0 32 3 Left 2
SYMATTR InstName C2
SYMATTR Value 1µ
SYMBOL res 1040 -112 R0
SYMATTR InstName RL2
SYMATTR Value 137
SYMBOL ind2 608 -128 M0
SYMATTR InstName L2A
SYMATTR Type ind
SYMATTR Value 38.1m
SYMBOL cap 880 352 R0
WINDOW 0 32 3 Left 2
SYMATTR InstName C3
SYMATTR Value 1µ
SYMBOL ind2 608 256 M0
SYMATTR InstName L3A
SYMATTR Type ind
SYMATTR Value 933µ
SYMBOL res 880 192 R0
SYMATTR InstName ESR3
SYMATTR Value 0.2
SYMBOL res 880 -192 R0
SYMATTR InstName ESR2
SYMATTR Value 0.2
SYMBOL res 1008 336 R0
SYMATTR InstName Rled
SYMATTR Value 1k
SYMBOL res 576 -32 R0
SYMATTR InstName rL2A
SYMATTR Value 2
SYMBOL res 576 368 R0
SYMATTR InstName rL3A
SYMATTR Value 0.1
SYMBOL LED 1008 224 R0
SYMATTR InstName LED
SYMBOL res 1120 256 R0
SYMATTR InstName RL3
SYMATTR Value 220
SYMBOL diode 608 -144 R180
WINDOW 0 24 64 Left 2
WINDOW 3 24 0 Left 2
SYMATTR InstName D2A
SYMATTR Value MUR460
SYMBOL diode 608 240 R180
WINDOW 0 24 64 Left 2
WINDOW 3 24 0 Left 2
SYMATTR InstName D3A
SYMATTR Value MUR110
SYMBOL ind2 768 -128 M0
SYMATTR InstName L2B
SYMATTR Type ind
SYMATTR Value 38.1m
SYMBOL res 736 -32 R0
SYMATTR InstName rL2B
SYMATTR Value 2
SYMBOL diode 768 -144 R180
WINDOW 0 24 64 Left 2
WINDOW 3 24 0 Left 2
SYMATTR InstName D2B
SYMATTR Value MUR460
SYMBOL ind2 768 256 M0
SYMATTR InstName L3B
SYMATTR Type ind
SYMATTR Value 933µ
SYMBOL res 736 368 R0
SYMATTR InstName rL3B
SYMATTR Value 0.1
SYMBOL voltage -832 800 R0
WINDOW 123 0 0 Left 0
WINDOW 39 0 0 Left 0
SYMATTR InstName VA1
SYMATTR Value PULSE(0 1 0 0 0 3.3u 6.665u)
SYMBOL voltage -848 208 R0
WINDOW 123 0 0 Left 0
WINDOW 39 0 0 Left 0
SYMATTR InstName V2
SYMATTR Value PULSE(0 18 0 0 0 10 10)
SYMBOL res -64 400 R0
SYMATTR InstName Rsense
SYMATTR Value 0.1
SYMBOL diode 768 240 R180
WINDOW 0 24 64 Left 2
WINDOW 3 24 0 Left 2
SYMATTR InstName D3B
SYMATTR Value MUR110
SYMBOL cap 2000 352 R0
SYMATTR InstName CT
SYMATTR Value 1.5n
SYMBOL cap 1648 352 R0
SYMATTR InstName Cref
SYMATTR Value 100n
SYMBOL res 1840 304 R90
WINDOW 0 0 56 VBottom 2
WINDOW 3 32 56 VTop 2
SYMATTR InstName RT
SYMATTR Value 5.6k
SYMBOL cap 2144 -32 M180
WINDOW 0 24 56 Left 2
WINDOW 3 24 8 Left 2
SYMATTR InstName Ccc
SYMATTR Value 100n
SYMBOL res 2448 128 R90
WINDOW 0 0 56 VBottom 2
WINDOW 3 32 56 VTop 2
SYMATTR InstName Rcsf
SYMATTR Value 1k
SYMBOL cap 2272 176 R0
SYMATTR InstName Ccfs
SYMATTR Value 100p
SYMBOL cap 1648 128 R180
WINDOW 0 24 56 Left 2
WINDOW 3 24 8 Left 2
SYMATTR InstName Cfb
SYMATTR Value 17n
SYMBOL res 1552 160 R180
WINDOW 0 36 76 Left 2
WINDOW 3 36 40 Left 2
SYMATTR InstName Rfb
SYMATTR Value 10k
SYMBOL npn 2112 464 M180
SYMATTR InstName Q1
SYMATTR Value BC547B
SYMBOL cap 2192 272 M0
SYMATTR InstName Cramp
SYMATTR Value 1n
SYMBOL res 2192 160 M0
SYMATTR InstName Rramp
SYMATTR Value 100k
SYMBOL res 2272 0 R0
SYMATTR InstName Rp
SYMATTR Value 12k
SYMBOL UC3843A 1840 112 R0
SYMATTR InstName X1
SYMBOL res 2400 832 R0
SYMATTR InstName Rfb_b
SYMATTR Value 110k
SYMBOL res 2400 1008 R0
SYMATTR InstName Rfb_a
SYMATTR Value 2.5k
SYMBOL res 2400 1104 R0
SYMATTR InstName Rfb_a_var
SYMATTR Value 5
SYMBOL cap 2352 944 R90
WINDOW 0 0 32 VBottom 2
WINDOW 3 32 32 VTop 2
SYMATTR InstName CcompZ
SYMATTR Value 10n
SYMBOL 4n35h 1824 912 M0
SYMATTR InstName X2
SYMBOL res 2064 848 R90
WINDOW 0 0 56 VBottom 2
WINDOW 3 32 56 VTop 2
SYMATTR InstName Rled_opto
SYMATTR Value 47k
SYMBOL res 1632 976 R0
SYMATTR InstName Ropto
SYMATTR Value 1k
SYMBOL res 1616 944 R90
WINDOW 0 0 56 VBottom 2
WINDOW 3 32 56 VTop 2
SYMATTR InstName Rfbg
SYMATTR Value 2.2k
SYMBOL tl431 2096 1088 M0
SYMATTR InstName U1
SYMBOL res 1968 304 R90
WINDOW 0 0 56 VBottom 2
WINDOW 3 32 56 VTop 2
SYMATTR InstName RT_var
SYMATTR Value 1.15k
SYMBOL schottky 2464 64 R180
WINDOW 0 40 36 Left 2
WINDOW 3 -94 35 Left 2
SYMATTR InstName D1
SYMATTR Value 1N5817
SYMATTR Description Diode
SYMATTR Type diode
SYMBOL schottky 2464 128 R180
WINDOW 0 44 33 Left 2
WINDOW 3 -94 32 Left 2
SYMATTR InstName D2
SYMATTR Value 1N5817
SYMATTR Description Diode
SYMATTR Type diode
SYMBOL res 2016 -112 R0
SYMATTR InstName Rstart
SYMATTR Value 100k
SYMBOL zener 2016 1120 R180
WINDOW 0 24 64 Left 2
WINDOW 3 24 0 Left 2
SYMATTR InstName D10V
SYMATTR Value BZX84C10L
SYMATTR Description Diode
SYMATTR Type diode
SYMBOL res -128 224 R0
WINDOW 0 50 55 VLeft 2
SYMATTR InstName RbleederA
SYMATTR Value 10k
SYMBOL res 32 224 M0
WINDOW 0 51 55 VLeft 2
SYMATTR InstName RbleederB
SYMATTR Value 10k
SYMBOL res 1408 -112 R0
SYMATTR InstName Rss
SYMATTR Value 47k
SYMBOL diode 1504 -80 R0
SYMATTR InstName Dss
SYMATTR Value 1N4148
SYMBOL pnp 1568 -176 R0
SYMATTR InstName Q3
SYMATTR Value BC557B
SYMBOL cap 1408 -224 R0
SYMATTR InstName Css
SYMATTR Value 10µ
SYMBOL res -288 192 R90
WINDOW 0 0 56 VBottom 2
WINDOW 3 32 56 VTop 2
SYMATTR InstName RsnA
SYMATTR Value 220
SYMBOL cap -448 272 R0
SYMATTR InstName CsnA
SYMATTR Value 680p
SYMBOL schottky -304 96 R90
WINDOW 0 0 32 VBottom 2
WINDOW 3 32 32 VTop 2
SYMATTR InstName DsnA
SYMATTR Value 1N5819
SYMATTR Description Diode
SYMATTR Type diode
SYMBOL ind -304 -16 R0
SYMATTR InstName LdA
SYMATTR Value 29.4µ
SYMBOL res 192 192 M90
WINDOW 0 0 56 VBottom 2
WINDOW 3 32 56 VTop 2
SYMATTR InstName RsnB
SYMATTR Value 220
SYMBOL cap 352 272 M0
SYMATTR InstName CsnB
SYMATTR Value 680p
SYMBOL schottky 208 96 M90
WINDOW 0 0 32 VBottom 2
WINDOW 3 32 32 VTop 2
SYMATTR InstName DsnB
SYMATTR Value 1N5819
SYMATTR Description Diode
SYMATTR Type diode
SYMBOL ind 208 -16 M0
SYMATTR InstName LdB
SYMATTR Value 29.4µ
SYMBOL res 2272 944 R90
WINDOW 0 0 56 VBottom 2
WINDOW 3 32 56 VTop 2
SYMATTR InstName RcompZ
SYMATTR Value 680k
SYMBOL CD4013B 240 784 R0
WINDOW 39 16 236 Left 0
SYMATTR SpiceLine VDD={VDD}  SPEED=1.0  TRIPDT=5e-9
SYMATTR InstName U2
SYMBOL CD4011B -576 1040 R0
WINDOW 39 -32 141 Left 0
SYMATTR SpiceLine VDD={VDD}  SPEED=1.0  TRIPDT=5e-9
SYMATTR InstName U3
SYMBOL CD4011B 576 1024 R0
WINDOW 39 -32 141 Left 0
SYMATTR SpiceLine VDD={VDD}  SPEED=1.0  TRIPDT=5e-9
SYMATTR InstName U4
SYMBOL voltage 560 848 R0
WINDOW 123 0 0 Left 0
WINDOW 39 0 0 Left 0
SYMATTR InstName V3
SYMATTR Value {VDD}
SYMBOL voltage 1392 1104 R0
WINDOW 123 0 0 Left 0
WINDOW 39 0 0 Left 0
SYMATTR InstName V4
SYMATTR Value PULSE(110 115 0 3.33u 3.33u 0 6.66u)
SYMBOL res 2080 848 R0
SYMATTR InstName R2
SYMATTR Value 50k
TEXT -1288 -504 Left 2 ;Directivas Spice
TEXT -1288 -296 Left 2 !.tran 0 100m 0 1u uic
TEXT -336 -248 Left 2 !KA L1A L2A L3A 1
TEXT 48 -248 Left 2 !KB L1B L2B L3B 1
TEXT 1864 392 Left 2 ;Preset 5k
TEXT 2272 1136 Left 2 ;Preset\n100 Ohm
TEXT -856 400 Left 2 ;Fuente para simular\nEn el esquematico real Vo3 es Vgg
TEXT 56 -328 Left 2 ;Interleaved Flyback
TEXT 56 704 Left 2 ;Circuito de disparo
TEXT 1848 -320 Left 2 ;Circuito de control
TEXT 1872 704 Left 2 ;Realimentación
TEXT 600 -496 Left 2 ;Electrónica IV - TP Final 2023 - Grupo 2
TEXT -1288 -440 Left 2 !.param VDD=18V
TEXT -1288 -368 Left 2 !.lib CD4000.lib
RECTANGLE Normal 1248 576 -928 -384 2
RECTANGLE Normal -992 -256 -1328 -544 2
RECTANGLE Normal 1248 1280 -928 640 2
RECTANGLE Normal 2592 576 1312 -384 2
RECTANGLE Normal 2592 1280 1312 640 2
RECTANGLE Normal 2592 -448 -928 -544 2
