Version 4
SHEET 1 4228 2080
WIRE -96 -256 -96 -304
WIRE -96 -256 -288 -256
WIRE 96 -256 -96 -256
WIRE 752 -256 592 -256
WIRE 896 -256 752 -256
WIRE 1056 -256 896 -256
WIRE 592 -224 592 -256
WIRE 752 -224 752 -256
WIRE -288 -208 -288 -256
WIRE 96 -208 96 -256
WIRE 896 -192 896 -256
WIRE 592 -128 592 -160
WIRE 752 -128 752 -160
WIRE -512 -112 -512 -144
WIRE -288 -112 -288 -128
WIRE 96 -112 96 -128
WIRE 1056 -112 1056 -256
WIRE 896 -48 896 -112
WIRE 592 -32 592 -48
WIRE 752 -32 752 -48
WIRE -512 0 -512 -32
WIRE 592 80 592 48
WIRE 752 80 752 48
WIRE 752 80 592 80
WIRE 896 80 896 16
WIRE 896 80 752 80
WIRE 1056 80 1056 -32
WIRE 1056 80 896 80
WIRE -176 112 -176 80
WIRE -16 112 -16 80
WIRE 752 128 592 128
WIRE 896 128 752 128
WIRE 1024 128 896 128
WIRE 1136 128 1024 128
WIRE 592 160 592 128
WIRE 752 160 752 128
WIRE 896 192 896 128
WIRE 1024 208 1024 128
WIRE -288 240 -288 -32
WIRE -256 240 -288 240
WIRE 96 240 96 -32
WIRE 96 240 64 240
WIRE -176 256 -176 192
WIRE -176 256 -192 256
WIRE -16 256 -16 192
WIRE 0 256 -16 256
WIRE 592 256 592 224
WIRE 752 256 752 224
WIRE 1136 256 1136 128
WIRE -256 272 -288 272
WIRE 96 272 64 272
WIRE -288 336 -288 272
WIRE -96 336 -288 336
WIRE 96 336 96 272
WIRE 96 336 -96 336
WIRE 896 336 896 272
WIRE 1024 336 1024 272
WIRE 592 368 592 336
WIRE 752 368 752 336
WIRE -96 480 -96 336
WIRE 592 480 592 448
WIRE 752 480 752 448
WIRE 752 480 592 480
WIRE 896 480 896 400
WIRE 896 480 752 480
WIRE 1024 480 1024 416
WIRE 1024 480 896 480
WIRE 1136 480 1136 336
WIRE 1136 480 1024 480
WIRE -320 704 -320 672
WIRE 192 704 192 672
WIRE -320 832 -320 784
WIRE 192 832 192 784
FLAG 1056 -256 Vout2
FLAG 1136 128 Vout3
FLAG 1056 80 0
FLAG 1024 480 0
FLAG -512 0 0
FLAG -512 -144 Vd
FLAG -176 80 VgA
FLAG -16 80 VgB
FLAG -96 -304 Vd
FLAG -96 480 0
FLAG -320 832 0
FLAG -320 672 VgA
FLAG 192 832 0
FLAG 192 672 VgB
DATAFLAG 944 -256 "round($*100)/100"
DATAFLAG 944 128 "round($*100)/100"
SYMBOL res -192 208 M180
WINDOW 0 36 76 Left 2
WINDOW 3 36 40 Left 2
SYMATTR InstName RgA
SYMATTR Value 33
SYMBOL cap 880 -48 R0
WINDOW 0 32 3 Left 2
SYMATTR InstName C2
SYMATTR Value 10µ
SYMBOL res 1040 -128 R0
SYMATTR InstName R2
SYMATTR Value 68
SYMBOL ind2 -304 -112 M180
WINDOW 0 36 80 Left 2
WINDOW 3 36 40 Left 2
SYMATTR InstName L1A
SYMATTR Value 588.11µ
SYMATTR Type ind
SYMBOL ind2 608 -144 M0
SYMATTR InstName L2A
SYMATTR Type ind
SYMATTR Value 47.05031m
SYMBOL cap 880 336 R0
WINDOW 0 32 3 Left 2
SYMATTR InstName C3
SYMATTR Value 10µ
SYMBOL ind2 608 240 M0
SYMATTR InstName L3A
SYMATTR Type ind
SYMATTR Value 1152.69µ
SYMBOL res -304 -128 R0
SYMATTR InstName rL1A
SYMATTR Value 0.1
SYMBOL res 880 176 R0
SYMATTR InstName ESR3
SYMATTR Value 0.2
SYMBOL res 880 -208 R0
SYMATTR InstName ESR2
SYMATTR Value 0.2
SYMBOL res 1008 320 R0
SYMATTR InstName Rled3
SYMATTR Value 1k
SYMBOL voltage -512 -128 R0
WINDOW 123 0 0 Left 0
WINDOW 39 0 0 Left 0
SYMATTR InstName V1
SYMATTR Value 30
SYMBOL res 576 -48 R0
SYMATTR InstName rL2A
SYMATTR Value 0.2
SYMBOL res 576 352 R0
SYMATTR InstName rL3
SYMATTR Value 0.1
SYMBOL LED 1008 208 R0
SYMATTR InstName LED3
SYMBOL res 1120 240 R0
SYMATTR InstName R3
SYMATTR Value 10
SYMBOL diode 608 -160 R180
WINDOW 0 24 64 Left 2
WINDOW 3 24 0 Left 2
SYMATTR InstName D2A
SYMBOL diode 608 224 R180
WINDOW 0 24 64 Left 2
WINDOW 3 24 0 Left 2
SYMATTR InstName D3A
SYMBOL res 0 208 R180
WINDOW 0 36 76 Left 2
WINDOW 3 36 40 Left 2
SYMATTR InstName RgB
SYMATTR Value 33
SYMBOL ind2 80 -112 M180
WINDOW 0 36 80 Left 2
WINDOW 3 36 40 Left 2
SYMATTR InstName L1B
SYMATTR Value 588.11µ
SYMATTR Type ind
SYMBOL res 80 -128 R0
SYMATTR InstName rL1B
SYMATTR Value 0.1
SYMBOL ind2 768 -144 M0
SYMATTR InstName L2B
SYMATTR Type ind
SYMATTR Value 47.05031m
SYMBOL res 736 -48 R0
SYMATTR InstName rL2B
SYMATTR Value 0.2
SYMBOL diode 768 -160 R180
WINDOW 0 24 64 Left 2
WINDOW 3 24 0 Left 2
SYMATTR InstName D2B
SYMBOL ind2 768 240 M0
SYMATTR InstName L3B
SYMATTR Type ind
SYMATTR Value 1152.69µ
SYMBOL res 736 352 R0
SYMATTR InstName rL1
SYMATTR Value 0.1
SYMBOL diode 768 224 R180
WINDOW 0 24 64 Left 2
WINDOW 3 24 0 Left 2
SYMATTR InstName D3B
SYMBOL voltage -320 688 R0
WINDOW 123 0 0 Left 0
WINDOW 39 0 0 Left 0
SYMATTR InstName VA
SYMATTR Value PULSE(0 18 0 0 0 4u 13.33u)
SYMBOL voltage 192 688 R0
WINDOW 123 0 0 Left 0
WINDOW 39 0 0 Left 0
SYMATTR InstName VB
SYMATTR Value PULSE(0 18 6.665u 0 0 4u 13.33u)
SYMBOL AutoGenerated\\irf540 -224 256 M0
SYMATTR InstName U1
SYMBOL AutoGenerated\\irf540 32 256 R0
SYMATTR InstName U2
TEXT -368 -280 Left 2 !KA L1A L2A L3A 1
TEXT 1344 -312 Left 2 ;Directivas Spice
TEXT 1392 -120 Left 2 !.inc opamp.sub
TEXT 1392 -264 Left 2 !.param Fs = 75k
TEXT 1392 -232 Left 2 !.param Ts = 1/Fs
TEXT 1392 -200 Left 2 !.param Ton = Ts* D
TEXT 1392 -168 Left 2 !.param D=0.3
TEXT 1392 -88 Left 2 !.tran 0 20m 0 1u
TEXT -16 -280 Left 2 !KB L1B L2B L3B 1
RECTANGLE Normal 1264 576 -640 -368 2
RECTANGLE Normal 1888 -48 1312 -352 2
