Version 4
SHEET 1 4228 2080
WIRE 64 160 64 112
WIRE 352 160 352 112
WIRE -784 176 -848 176
WIRE -848 224 -848 176
WIRE 64 304 64 240
WIRE 352 304 352 240
WIRE -848 336 -848 304
WIRE -752 768 -832 768
WIRE -128 800 -128 768
WIRE -128 800 -320 800
WIRE 1024 800 1024 784
WIRE 1024 800 832 800
WIRE -832 816 -832 768
WIRE 160 848 112 848
WIRE 384 848 352 848
WIRE 1024 848 1024 800
WIRE -128 864 -128 800
WIRE 832 864 832 800
WIRE -320 880 -320 800
WIRE 160 880 112 880
WIRE 960 896 928 896
WIRE -192 912 -224 912
WIRE 384 912 352 912
WIRE -832 944 -832 896
WIRE 832 992 832 944
WIRE 928 992 928 896
WIRE 928 992 832 992
WIRE 1024 992 1024 944
WIRE 1120 992 1024 992
WIRE -320 1008 -320 960
WIRE -224 1008 -224 912
WIRE -224 1008 -320 1008
WIRE -128 1008 -128 960
WIRE -32 1008 -128 1008
WIRE 256 1024 256 992
WIRE 832 1040 832 992
WIRE 1024 1040 1024 992
WIRE -320 1056 -320 1008
WIRE -128 1056 -128 1008
WIRE 528 1072 496 1072
WIRE -640 1088 -688 1088
WIRE 672 1088 656 1088
WIRE 768 1088 752 1088
WIRE 928 1088 928 992
WIRE 960 1088 928 1088
WIRE -480 1104 -512 1104
WIRE -384 1104 -400 1104
WIRE -224 1104 -224 1008
WIRE -192 1104 -224 1104
WIRE 528 1104 496 1104
WIRE -640 1120 -688 1120
WIRE -320 1216 -320 1152
WIRE -128 1216 -128 1152
WIRE -128 1216 -320 1216
WIRE 832 1216 832 1136
WIRE 1024 1216 1024 1136
WIRE 1024 1216 832 1216
FLAG -128 1216 0
FLAG 1024 1216 0
FLAG -32 1008 VgA
FLAG 1120 992 VgB
FLAG -128 768 Vgg
FLAG 1024 784 Vgg
FLAG 112 880 Vcontrol
FLAG -688 1088 Q
FLAG 496 1072 _Q
FLAG 384 848 Q
FLAG 384 912 _Q
FLAG -688 1120 Vcontrol
FLAG -832 944 0
FLAG -752 768 Vcontrol
FLAG 256 1024 0
FLAG 256 768 0
FLAG -848 336 0
FLAG -784 176 Vgg
FLAG 112 848 _Q
FLAG -720 256 Vo3
FLAG 496 1104 Vcontrol
FLAG 64 112 VgA
FLAG 352 112 VgB
FLAG 64 304 0
FLAG 352 304 0
FLAG 768 352 0
FLAG 768 272 VDD
SYMBOL npn -192 864 R0
SYMATTR InstName Q1A
SYMATTR Value 2N2222
SYMBOL npn 960 848 R0
SYMATTR InstName Q1B
SYMATTR Value 2N2222
SYMBOL pnp -192 1152 M180
SYMATTR InstName Q2A
SYMATTR Value 2N2905A
SYMBOL pnp 960 1136 M180
SYMATTR InstName Q2B
SYMATTR Value 2N2905A
SYMBOL res -336 864 R0
SYMATTR InstName RcA
SYMATTR Value 560
SYMBOL npn -384 1056 R0
SYMATTR InstName QcA
SYMATTR Value BC547C
SYMBOL res -384 1088 R90
WINDOW 0 0 56 VBottom 2
WINDOW 3 32 56 VTop 2
SYMATTR InstName RbA
SYMATTR Value 1k
SYMBOL res 816 848 R0
SYMATTR InstName RcB
SYMATTR Value 560
SYMBOL npn 768 1040 R0
SYMATTR InstName QcB
SYMATTR Value BC547C
SYMBOL res 768 1072 R90
WINDOW 0 0 56 VBottom 2
WINDOW 3 32 56 VTop 2
SYMATTR InstName RbB
SYMATTR Value 1k
SYMBOL voltage -832 800 R0
WINDOW 123 0 0 Left 0
WINDOW 39 0 0 Left 0
SYMATTR InstName VA1
SYMATTR Value PULSE(0 {VDD} 0 0 0 3.3u 6.665u)
SYMBOL voltage -848 208 R0
WINDOW 123 0 0 Left 0
WINDOW 39 0 0 Left 0
SYMATTR InstName V2
SYMATTR Value PULSE(0 {VDD} 0 0 0 10 10)
SYMBOL res 48 144 R0
SYMATTR InstName R1
SYMATTR Value 10k
SYMBOL res 336 144 R0
SYMATTR InstName R2
SYMATTR Value 10k
SYMBOL CD4013B 256 768 R0
WINDOW 39 16 236 Left 0
SYMATTR InstName U1
SYMATTR SpiceLine VDD={VDD}  SPEED=1.0  TRIPDT=5e-9
SYMBOL voltage 768 256 R0
WINDOW 123 0 0 Left 0
WINDOW 39 0 0 Left 0
SYMATTR InstName V1
SYMATTR Value 18
SYMBOL CD4011B 592 1024 R0
WINDOW 39 -32 141 Left 0
SYMATTR InstName U2
SYMATTR SpiceLine VDD={VDD}  SPEED=1.0  TRIPDT=5e-9
SYMBOL CD4011B -576 1040 R0
WINDOW 39 -32 141 Left 0
SYMATTR InstName U3
SYMATTR SpiceLine VDD={VDD}  SPEED=1.0  TRIPDT=5e-9
TEXT -1288 -504 Left 2 ;Directivas Spice
TEXT -1288 -440 Left 2 !.tran 0 10m 0 1u uic
TEXT -856 400 Left 2 ;Fuente para simular\nEn el esquematico real Vo3 es Vgg
TEXT 56 704 Left 2 ;Circuito de disparo
TEXT 600 -496 Left 2 ;Electrónica IV - TP Final 2023 - Grupo 2
TEXT -1280 -472 Left 2 !.lib CD4000.lib
TEXT 464 728 Left 2 !.param VDD=18V
RECTANGLE Normal 1248 576 -928 -384 2
RECTANGLE Normal -992 -400 -1328 -544 2
RECTANGLE Normal 1248 1280 -928 640 2
RECTANGLE Normal 2592 -448 -928 -544 2
