Version 4
SHEET 1 1076 756
WIRE -672 64 -800 64
WIRE -800 80 -800 64
WIRE 656 112 656 96
WIRE 656 112 608 112
WIRE 656 128 656 112
WIRE 288 176 240 176
WIRE 544 176 512 176
WIRE 608 176 608 112
WIRE 608 176 544 176
WIRE -800 192 -800 160
WIRE 656 208 656 192
WIRE 48 240 16 240
WIRE 144 240 128 240
WIRE 160 240 144 240
WIRE 256 240 224 240
WIRE 288 240 256 240
WIRE 544 240 512 240
WIRE 672 240 544 240
WIRE 16 304 16 240
WIRE 256 304 16 304
WIRE 288 304 256 304
WIRE 544 304 512 304
WIRE 640 304 544 304
WIRE 752 304 640 304
WIRE 800 304 752 304
WIRE 912 304 880 304
WIRE 640 320 640 304
WIRE 752 336 752 304
WIRE -720 352 -800 352
WIRE 256 368 224 368
WIRE 288 368 256 368
WIRE 544 368 512 368
WIRE 576 368 544 368
WIRE -800 384 -800 352
WIRE 576 416 576 368
WIRE 640 416 640 400
WIRE 640 416 576 416
WIRE 752 432 752 400
WIRE 224 480 224 368
WIRE 352 480 224 480
WIRE 576 480 576 416
WIRE 576 480 432 480
WIRE -800 496 -800 464
WIRE 224 512 224 480
WIRE 576 512 576 480
WIRE -800 608 -800 576
WIRE 224 624 224 576
WIRE 576 624 576 576
FLAG -800 0 0
FLAG -800 -80 Vgg
FLAG -800 272 0
FLAG -672 64 Vo_comp
FLAG -720 352 Vsense
FLAG -800 608 0
FLAG 256 240 Err
FLAG 256 304 Vfb
FLAG 256 368 Ref
FLAG 544 176 Vcc
FLAG 544 240 Out
FLAG 544 304 Ifb
FLAG 544 368 Osc
FLAG 144 240 1
FLAG 224 624 0
FLAG 576 624 0
FLAG 752 432 0
FLAG 240 176 0
FLAG 672 240 Vcontrol
FLAG 912 304 Vsense
FLAG 656 208 0
FLAG 656 96 Vgg
FLAG 16 304 Vo_comp
SYMBOL voltage -800 -96 R0
SYMATTR InstName V1
SYMATTR Value 18
SYMBOL voltage -800 176 R0
WINDOW 123 0 0 Left 0
WINDOW 39 0 0 Left 0
SYMATTR InstName V2
SYMATTR Value SINE(2.4885 1 1k)
SYMBOL voltage -800 368 R0
WINDOW 123 0 0 Left 0
WINDOW 39 0 0 Left 0
SYMATTR InstName V3
SYMATTR Value PULSE(0 0.014 0 2u 0.001u 0.001u 6.665u)
SYMBOL voltage -800 480 R0
WINDOW 123 0 0 Left 0
WINDOW 39 0 0 Left 0
SYMATTR InstName V4
SYMATTR Value PULSE(0 0.548 0 4.4n 20n 2u 6.665u)
SYMBOL voltage -800 64 R0
WINDOW 123 0 0 Left 0
WINDOW 39 0 0 Left 0
SYMATTR InstName V5
SYMATTR Value PULSE(0 0.023 0 2u 4.664u 0.001u 6.665u)
SYMBOL cap 560 512 R0
SYMATTR InstName CT
SYMATTR Value 1.5n
SYMBOL cap 208 512 R0
SYMATTR InstName Cref
SYMATTR Value 100n
SYMBOL res 448 464 R90
WINDOW 0 0 56 VBottom 2
WINDOW 3 32 56 VTop 2
SYMATTR InstName RT
SYMATTR Value 7.65k
SYMBOL cap 640 128 R0
SYMATTR InstName Cgg
SYMATTR Value 100n
SYMBOL res 624 304 R0
SYMATTR InstName R1
SYMATTR Value 100k
SYMBOL res 896 288 R90
WINDOW 0 0 56 VBottom 2
WINDOW 3 32 56 VTop 2
SYMATTR InstName Rcsf
SYMATTR Value 1k
SYMBOL cap 736 336 R0
SYMATTR InstName Ccfs
SYMATTR Value 100p
SYMBOL cap 224 224 R90
WINDOW 0 0 32 VBottom 2
WINDOW 3 32 32 VTop 2
SYMATTR InstName Cfb
SYMATTR Value 1n
SYMBOL res 144 224 R90
WINDOW 0 0 56 VBottom 2
WINDOW 3 32 56 VTop 2
SYMATTR InstName Rfb
SYMATTR Value 330k
SYMBOL UC3843A 400 272 R0
SYMATTR InstName X1
TEXT -632 -40 Left 2 !.tran 0 3m 0 uic
