Version 4
SHEET 1 4228 2080
WIRE -1552 -64 -1680 -64
WIRE -640 -48 -672 -48
WIRE -544 -48 -560 -48
WIRE -1680 -32 -1680 -64
WIRE -672 -16 -672 -48
WIRE -672 -16 -992 -16
WIRE -672 16 -672 -16
WIRE -1552 32 -1552 -64
WIRE -1440 32 -1552 32
WIRE -1360 32 -1440 32
WIRE -1120 32 -1168 32
WIRE -992 32 -992 -16
WIRE -992 32 -1040 32
WIRE -992 48 -992 32
WIRE -1568 128 -1616 128
WIRE -1440 128 -1488 128
WIRE -1360 128 -1440 128
WIRE -1088 128 -1168 128
WIRE -992 128 -1088 128
WIRE -912 128 -992 128
WIRE -800 128 -832 128
WIRE -672 128 -672 96
WIRE -672 128 -736 128
WIRE -1440 160 -1440 128
WIRE -672 176 -672 128
WIRE -672 176 -720 176
WIRE -672 192 -672 176
WIRE -992 208 -992 128
WIRE -1088 224 -1088 128
WIRE -720 256 -720 176
WIRE -720 256 -944 256
WIRE -1440 272 -1440 240
WIRE -1088 384 -1088 288
WIRE -992 384 -992 304
WIRE -672 384 -672 272
WIRE -672 384 -992 384
FLAG -672 -48 Vo2
FLAG -672 384 0
FLAG -1440 272 0
FLAG -1616 128 Vo_comp
FLAG -1440 32 Vref
FLAG -1088 384 0
FLAG -544 32 0
FLAG -1680 48 0
SYMBOL res -688 0 R0
SYMATTR InstName Rfb_b
SYMATTR Value 9.53k
SYMBOL res -688 176 R0
SYMATTR InstName Rfb_a
SYMATTR Value 2.49k
SYMBOL cap -736 112 R90
WINDOW 0 0 32 VBottom 2
WINDOW 3 32 32 VTop 2
SYMATTR InstName CcompZ
SYMATTR Value 0.01µ
SYMBOL 4n35h -1264 80 M0
SYMATTR InstName X2
SYMBOL res -1024 16 R90
WINDOW 0 0 56 VBottom 2
WINDOW 3 32 56 VTop 2
SYMATTR InstName Rled_opto
SYMATTR Value 5k
SYMBOL res -1456 144 R0
SYMATTR InstName Ropto
SYMATTR Value 1k
SYMBOL res -1472 112 R90
WINDOW 0 0 56 VBottom 2
WINDOW 3 32 56 VTop 2
SYMATTR InstName Rfbg
SYMATTR Value 4.99k
SYMBOL tl431 -992 256 M0
SYMATTR InstName U1
SYMBOL res -816 112 R90
WINDOW 0 0 56 VBottom 2
WINDOW 3 32 56 VTop 2
SYMATTR InstName RcompZ
SYMATTR Value 88.7k
SYMBOL voltage -544 -64 R0
WINDOW 123 0 0 Left 0
WINDOW 39 0 0 Left 0
SYMATTR InstName V4
SYMATTR Value {12+I*R}
SYMBOL res -544 -64 R90
WINDOW 0 0 56 VBottom 2
WINDOW 3 32 56 VTop 2
SYMATTR InstName R1
SYMATTR Value {R}
SYMBOL voltage -1680 -48 R0
WINDOW 123 0 0 Left 0
WINDOW 39 0 0 Left 0
SYMATTR InstName V6
SYMATTR Value 5
SYMBOL res -1008 32 R0
SYMATTR InstName R2
SYMATTR Value 200
TEXT -1288 -504 Left 2 ;Directivas Spice
TEXT -1288 -296 Left 2 !.tran 0 100m 0 1u uic
TEXT -1216 -128 Left 2 ;Realimentación
TEXT -1256 -240 Left 2 !.param R = 10
TEXT -1256 -208 Left 2 !.param I = 50mA
RECTANGLE Normal -992 -256 -1328 -544 2
RECTANGLE Normal -496 448 -1776 -192 2
